test/fixtures/powermodels/case5_pwlc/sol_dc_pf.json
{
  "termination_status": "OPTIMAL",
  "objective": 0.0,
  "solution": {
    "dcline": {
      "1": {
        "qf": null,
        "qt": null,
        "pt": -0.1,
        "pf": 0.1
      }
    },
    "baseMVA": 100.0,
    "gen": {
      "4": {
        "qg": null,
        "pg": -0.0
      },
      "1": {
        "qg": null,
        "pg": 0.4
      },
      "5": {
        "qg": null,
        "pg": -0.039999999999999494
      },
      "2": {
        "qg": null,
        "pg": 1.7
      },
      "6": {
        "qg": null,
        "pg": 4.7
      },
      "3": {
        "qg": null,
        "pg": 3.24
      }
    },
    "multiinfrastructure": false,
    "multinetwork": false,
    "bus": {
      "4": {
        "va": -0.0,
        "vm": 1.0
      },
      "1": {
        "va": 0.05752900754985563,
        "vm": 1.0
      },
      "10": {
        "va": 0.07285649208395324,
        "vm": 1.0
      },
      "2": {
        "va": -0.013353745280333045,
        "vm": 1.0
      },
      "3": {
        "va": -0.007872938538910898,
        "vm": 1.0
      }
    },
    "per_unit": true
  }
}

